wsmh-dev.gerhold-service.de
bebessi.com
AS43260
bebessi.com.tr
AS43260
www.bebessi.com
AS43260
bio-teak.com
AS43260
test.crypto--world.com
www.yaki.com.br
yaki.com.br
sensuale.sensualemodels.com.br
rahat.albayan-eg.com
lightdirect.goodextradingnz.com
dordod.com
draryas.org
graduacion.org.mx
CONTABO
mapetiteassiette.hesitepas.net
creativegroupindia.com
www.itwebcare.com
www.alphadistribution.store
web.mybreezeholidays.com
ds.pwclientdemo.com
persiankittens.shop
idhipakkalocal.com
www.idhipakkalocal.com
www.eleganteyebrowserinafair.com.au
ulker.reklamsart.com
proje3.kayasbilisim.online
www.ecolemcc.com
aliqtissady.com
dj-schule-ludwigsburg.de
dj-schule-stuttgart.de
DE-TOPCOLO
www.dj-schule-ludwigsburg.de
DE-TOPCOLO
www.dj-schule-stuttgart.de
DE-TOPCOLO
mail.markisen-mannheim.net
DE-TOPCOLO
markisen-mannheim.net
DE-TOPCOLO
www.markisen-mannheim.net
DE-TOPCOLO
hochwertiges-vordach.de
DE-TOPCOLO
mail.hochwertiges-vordach.de
DE-TOPCOLO
www.hochwertiges-vordach.de
DE-TOPCOLO
dolcevitamobilehomes.com
MYLOC-AS
www.yazarmedya.com
MYLOC-AS
www.srv1.orteov.com
NG-AS
ch36.com
IT7NET
changhexin.com
IT7NET
www.istcentar.rs
SERBIA-BROADBAND-AS
fit-mit-monique.de
MANITU
www.fit-mit-monique.de
MANITU
babyfotografie.lea-schneider.com
MANITU
develop.creditlabs.ru
RUSONYX-AS
ap-toys.ru
MASTERHOST-AS
ap-toys.ru
MASTERHOST-AS
www.ap-toys.ru
MASTERHOST-AS
ap-toys.ru
MASTERHOST-AS
www.ap-toys.ru
MASTERHOST-AS
n.lasercosmetologspb.ru
BEGET-AS
nows.kea.vn
b12nhj3.myraidbox.de
www.smarttechs.com.pk
OVH
losabuelos.eu
OVH
farasuperfood.ir
OVH
fitfat.com
OVH
www.fitfat.com
OVH
hittheroof.world
ASN-PROSERVE
www.hittheroof.world
ASN-PROSERVE
www.maartenterhorst.nl
ASN-PROSERVE
vanbreebedrijfsarts.nl
ASN-PROSERVE
www.vanbreebedrijfsarts.nl
ASN-PROSERVE
xn--einzel-stck-1hb.at
NESSUS
talkingboutroses.com
www.talkingboutroses.com
bthetravelsurfer.nl
reaact.net
HOSTNET
test.rsmt.si
TELEMACH-HOSTING
slimfinedetox.com
HVC-AS
pawelkuzmicz.pl
ZETO-RZESZOW
www.pawelkuzmicz.pl
ZETO-RZESZOW
tipsylemon.se
INTERNETBORDER
www.tipsylemon.se
INTERNETBORDER
www.stillage.com.ua
mail.pean.hemsida.eu
ASODERLAND
www.pean.hemsida.eu
ASODERLAND
eng-sp.knu.ua
eng-sp.univ.kiev.ua
www.eng-sp.knu.ua
www.eng-sp.univ.kiev.ua
rigasmebeles.eu
NANO-AS
blocks.wmm.marketing
CLOUDPIT
testrun.molitor-berlin-sandbox.de
NETCUP-AS
mail.polishismylove.smarthost.pl
SMARTHOST-PL-AS
polishismylove.smarthost.pl
SMARTHOST-PL-AS
www.polishismylove.smarthost.pl
SMARTHOST-PL-AS
sklep.cavitel-bio.com
SMARTHOST-PL-AS
www.sklep.cavitel-bio.com
SMARTHOST-PL-AS
cashregisters.seaeaglebg.com
ICN-
kasoviaparatibg.com
ICN-
mail.kasoviaparatibg.com
ICN-
www.kasoviaparatibg.com
ICN-
mail.sklada.shop
ICN-
mail.sklada451.atom.icnhost.net
ICN-
sklada451.atom.icnhost.net
ICN-
www.sklada.shop
ICN-
gradinka.boyanpavlov.com
ICN-
gradinka.net
ICN-
mail.gradinka.net
ICN-
www.gradinka.boyanpavlov.com
ICN-
www.gradinka.net
ICN-
derma-expert.spa-expert.eu
ICN-
www.derma-expert.spa-expert.eu
ICN-
mail.modernclassics.tech
ICN-
modernclassics.modernclassics.bg
ICN-
modernclassics.tech
ICN-
www.modernclassics.modernclassics.bg
ICN-
www.modernclassics.tech
ICN-
centrelebret.org
LWS
unesscars.com
LWS
www.centrelebret.org
LWS
awwalkm-informatique.com
LWS
tmp.bons-plans-tana.net
LWS
asmi.timaglobalservices.com
LWS
www.dieproblemloeser.eu
TTM
www.dieproblemloeser.eu
TTM
www.dieproblemloeser.eu
TTM
www.goodsho.pp.ua
NETH-AS
www.01zaim.ru.elqo.ru
BEST-HOSTER
www.skladkolesa.com
BEST-HOSTER
www.nomads.thinkdigital.ro
CHROMINANCE-AS
www.svareckyinfo.cz
ASOKNET
teszt.inganyag.hu
RACKHOST-AS
teszt.inganyag.nxt24175.nextadmin.hu
RACKHOST-AS
www.teszt.inganyag.hu
RACKHOST-AS
www.teszt.inganyag.nxt24175.nextadmin.hu
RACKHOST-AS
teszt.teazzunk.hu
RACKHOST-AS
wp-sqlite.4motion.cz
s574267.ha003.t.justns.ru
ASBAXET
mail.infrastructuresmag.com
LWS
kccsolution.wintechdigit.com
LWS
mail.wintechdigit.com
LWS
mail.wogox.eu
LWS
wogox.eu
LWS
www.wintechdigit.com
LWS
www.wogox.eu
LWS
www.nathansvillahostel.miaeverollow.org
LWS
www.notariuszuliasz.pl
BIZNESHOST-AS
serenise.org
MEDIACTIVE-NETWORK
www.ad-petanque-live.be
MEDIACTIVE-NETWORK
acremovalsandstorage.co.uk
RACKSRV
mail.acremovalsandstorage.co.uk
RACKSRV
mail.airportcottage.co.uk
RACKSRV
szmpt.prachatice.eu
VSHOSTING
shop.phoenix.ge
PROSERVICE
www.shop.phoenix.ge
PROSERVICE
sptquestrooms.shalegraal.com
HOSTPRO-AS
www.sptquestrooms.shalegraal.com
HOSTPRO-AS
baypetpetrol.com
www.baypetpetrol.com
www.abundantlifechristianacademy.com
VELIANET-AS
teszt.gyoparlodge.hu
MEDIACENTER-AS
www.uj.edzes-noknek.hu
MEDIACENTER-AS
www.3umfs.ru
TIMEWEB-AS
exspertremonta.ru
TIMEWEB-AS
edu.dlimmc.ru
TIMEWEB-AS
www.dlimmc.ru
TIMEWEB-AS
www.edu.dlimmc.ru
TIMEWEB-AS
new.weddingsatblackthorpebarn.co.uk
GD-EMEA-DC-LD5
amlak13.ir
NRP-NETWORK
www.amlak13.ir
NRP-NETWORK
prokurorhbr.ru
ON-LINE-DATA
infrasoil.nl
GD-EMEA-DC-SXB1
www.infrasoil.nl
GD-EMEA-DC-SXB1
electricbikehiredirect.totalnethost.co.uk
GODADDY-SXB
mail.totalnethost.co.uk
GODADDY-SXB
totalnethost.co.uk
GODADDY-SXB
www.electricbikehiredirect.totalnethost.co.uk
GODADDY-SXB
www.totalnethost.co.uk
GODADDY-SXB
sun4.gsoulbeta.com
websitetestsilo.com
www.websitetestsilo.com
mail.starkidsce.com.br
starkidsce.com.br
dev.itsva.org
tutorlinked.com
VELIANET-AS
ergenesu.com
GODADDY-SXB
mail.ergenesu.com
GODADDY-SXB
www.ergenesu.com
GODADDY-SXB
ethpods.io
GODADDY-SXB
ferrerfoodconsulting.com
GODADDY-SXB
mail.ferrerfoodconsulting.com
GODADDY-SXB
www.ferrerfoodconsulting.com
GODADDY-SXB
knoxpv.com
GODADDY-SXB
www.acmbilisim.com
GODADDY-SXB
mail.kenyanreport.com
GODADDY-SXB
www.kenyanreport.com
GODADDY-SXB
www.southernprints.co.uk
GODADDY-SXB
digitaladvert.co.uk
GODADDY-SXB
radioadvertisingblog.co.uk
GODADDY-SXB
www.digitaladvert.co.uk
GODADDY-SXB
www.radioadvertisingblog.co.uk
GODADDY-SXB
mail.interstaterelocationgroup.com
GODADDY-SXB
cap-hpi.dev.pk-testing.info
GODADDY-SXB
identifix.dev.pk-testing.info
GODADDY-SXB
daccord-cert.de
GD-EMEA-DC-SXB1
www.daccord-cert.de
GD-EMEA-DC-SXB1
www.cazul.eu
GODADDY-SXB
zochi-hairdressing.co.uk
GODADDY-SXB
exceptionaleducation.theholistichomeopathicpractice.co.uk
GODADDY-SXB
mail.exceptionaleducation.co.uk
GODADDY-SXB
www.exceptionaleducation.co.uk
GODADDY-SXB
www.exceptionaleducation.theholistichomeopathicpractice.co.uk
GODADDY-SXB
refurbloans.com
GODADDY-SXB
www.refurbloans.com
GODADDY-SXB
cashmymortgage.com
GODADDY-SXB
www.cashmymortgage.com
GODADDY-SXB
mail.oxfordpodcasting.co.uk
GODADDY-SXB
www.oxfordpodcasting.co.uk
GODADDY-SXB
mail.rumiser.com
GODADDY-SXB
rumiser.com
GODADDY-SXB
www.rumiser.com
GODADDY-SXB
www.catalbas.co.uk
GODADDY-SXB
lion-stones.com
GODADDY-SXB
mail.lion-stones.com
GODADDY-SXB
www.lion-stones.com
GODADDY-SXB
codegrinta.com
GODADDY-SXB
www.codegrinta.com
GODADDY-SXB
www.betbkcn.com
GODADDY-SXB
cornish-motorhome.co.uk
GODADDY-SXB
mail.cornish-motorhome.co.uk
GODADDY-SXB
www.testing.vieclamhoangmai.com
GODADDY-SXB
ub-jewelry.com
GODADDY-SXB
www.ub-jewelry.com
GODADDY-SXB
lgsmat.com
GODADDY-SXB
mail.lgsmat.com
GODADDY-SXB
www.lgsmat.com
GODADDY-SXB
beruchi.com
GODADDY-SXB
civilparq.com
GODADDY-SXB
www.civilparq.com
GODADDY-SXB
mail.myairportransfer.com
GODADDY-SXB
cricketexchmarket.com
GODADDY-SXB
winsportdaddy.com
GODADDY-SXB
pumo.uk
GODADDY-SXB
www.pumo.uk
GODADDY-SXB
kclovestories.co.uk
GODADDY-SXB
mail.xlnav.co.uk
GODADDY-SXB
www.xlnav.co.uk
GODADDY-SXB
xlnav.co.uk
GODADDY-SXB
www.synige.com
GODADDY-SXB
mail.awuss.com
GODADDY-SXB
bivap.com.br
GODADDY-SXB
mail.bivap.com.br
GODADDY-SXB
www.bivap.com.br
GODADDY-SXB
www.milchpumpe-ratgeber.info
GODADDY-SXB
hereistanbul.com
GODADDY-SXB
www.hereistanbul.com
GODADDY-SXB
www.scramblebit.app
GODADDY-SXB
motion-r.com
GODADDY-SXB
www.motion-r.com
GODADDY-SXB
www.alte-website.auctiora.com
GD-EMEA-DC-SXB1
webdenmobile.com
GODADDY-SXB
mail.sneakersandheelsgala.com
GODADDY-SXB
sneakersandheelsgala.com
GODADDY-SXB
mail.markcushway.com
GODADDY-SXB
markcushway.com
GODADDY-SXB
www.markcushway.com
GODADDY-SXB
wpsynctools.relaunch.live
GODADDY-SXB
comunidaddegesar.org
GODADDY-SXB
mail.comunidaddegesar.org
GODADDY-SXB
www.comunidaddegesar.org
GODADDY-SXB
mykitchenappliances.co.uk
GODADDY-SXB
sucuriip.bedroomshoppe.co.uk
GODADDY-SXB
www.mykitchenappliances.co.uk
GODADDY-SXB
mail.ixcheltherapies.co.uk
GODADDY-SXB
ausfuellen.at
GODADDY-SXB
www.ausfuellen.at
GODADDY-SXB
www.wolkenpost.ch
GODADDY-SXB
inside.ceeqoo.com
GODADDY-SXB
helpcenter.testorbit.de
GODADDY-SXB
dev-4.adn-nations.fr
OVH
mouscron.lesmachinistes.fr
OVH
rvl.jk2agenceweb.com
OVH
onyx-dev-wordpress.rack2.jdk.it
FASTWEB
logair.io
matrimoniogospelmilano.it
FASTWEB
ripristino.difrancescogioielli.it
ARUBA-ASN
bozyakahematolojisempozyumu.org
NETDIREKT-AS
www.bozyakahematolojisempozyumu.org
NETDIREKT-AS
www.www2.subtechsports.com
LOOPIA
www2.subtechsports.com
LOOPIA
wp3.marathonsallskapet.se
LOOPIA
liljekullen.se
LOOPIA
scandinaviameat.se
LOOPIA
www.liljekullen.se
LOOPIA
www.scandinaviameat.se
LOOPIA
staging.voiceofcrypto.online
neetcleaningcompany.com
www.neetcleaningcompany.com
sitemap.finnishtech.fi
ZITCOM
shemweta.com
ZITCOM
tebethke.itdus.mediadesign.de
zahrymar.az
AZ-SELNET
atendemedica.idevteam.net
globolibri.com
OVH
www.jobs.xonne.it
OVH
www.residenzasantangelo.it
OVH
demo.artandlandscape.it
OVH
www.demo.artandlandscape.it
OVH
notifiche.mach-star.ch
OVH
www.notifiche.mach-star.ch
OVH
word.nomnomgames.net
OVH
www.word.nomnomgames.net
OVH
www.barcelonaestels.com
OVH
www.futbolbarcelona.net
OVH
develop-sr3snxi-zw27fm3roayzs.fr-3.platformsh.site
OVH
main-bvxea6i-5gsgognx6r6ui.fr-3.platformsh.site
OVH
main-bvxea6i-lhnemvndion4c.fr-3.platformsh.site
OVH
main-bvxea6i-ptzm34mb3oenk.fr-3.platformsh.site
OVH
main-bvxea6i-zw27fm3roayzs.fr-3.platformsh.site
OVH
production-vohbr3y-h2a3cdupjqok4.fr-3.platformsh.site
OVH
test-elastic-axrdjpy-5gsgognx6r6ui.fr-3.platformsh.site
OVH
master-7rqtwti-tdkpel6fl2gak.ovhcloud-fr-1.webpaas.ovh.net
OVH
bootstrap.brz.ee
OVH
webfly.brz.ee
OVH
www.bootstrap.brz.ee
OVH
www.webfly.brz.ee
OVH
restore10.rmweb.it
OVH
www.formacaoalentejo.pt
ALMOUROLTEC
www.jeturun.com
CIZGI
www.sibcgroup.com
MHOST
www.grace-drink.com.redbar.mycpanel.rs
SERBIA-BROADBAND-AS
btpaz30p.myraidbox.de
emenou.ramonbrunchproject.gr
btdkogzu.myraidbox.de
gabryprivate.altervista.org
penza.el-cleaning.ru
dev.dialoge-festival-mv.de
budujemy.zielonelawki.pl
CF-KRK
skrzydla.twojastronawww.eu
LH
www.skrzydla.twojastronawww.eu
LH
marlenaostrowska.pl
LH
wawup.me
VERDINA
sviluppo.4fair.cloud
ARUBA-ASN
qbico-test.it
notia.ir
RASANA
t1.0732.co.uk
UKSERVERS-AS
addons.dk
ZITCOM
www.voa.fi
UPCLOUD
demo.dothosondong.info
UPCLOUD
domuma.ru
RECONN
www.domuma.ru
RECONN
dom-v-podrezkovo.ru
RECONN
www.dom-v-podrezkovo.ru
RECONN
casapulia.netplanet.it
ARUBA-ASN
www.progettiperformanti.it
ARUBA-ASN
john-wick.powerfuldocs.com
UPCLOUD
mail.vapestorenclave.pk
CONTABO
vapestorenclave.vistechsol.com
CONTABO
www.vapestorenclave.pk
CONTABO
dadscarcentre.com
FAST2HOST
www.dadscarcentre.matrixsldomains.com
FAST2HOST
kjgeckos.cz
SUPERNETWORK
www.kjgeckos.cz
SUPERNETWORK
www.diakonie-hagen-en.de
SPEEDBONE-AS
_dc-mx.3f3f723cb54b.finessadekor.rs
AS-CHOOPA
dc-64e06a5f2413.transferpricing.rs
AS-CHOOPA
mail.andrijageric.com
AS-CHOOPA
zrh.ch.vps.redius.com
SOLARCOM
www.primahosting.be
LEASEWEB-NL-AMS-01
saey.nael.ir
www.saey.nael.ir
nikaadweb.ir
mail.vstarlight.in
startinit.ru
static.113.155.216.95.clients.your-server.de
hripankova.com
www.hripankova.com
shubhammittal.iidethakur.xyz
tusharthakur.iidethakur.xyz
livepennews.com
www.livepennews.com
krawfordinstitute.com
www.krawfordinstitute.dogoodcommunity.org
www.semanasantademalagaayeryhoy.com
ootycleaning.com
tvardovsky.ru
www.tvardovsky.ru
dev.rubeenas.com
www.dev.rubeenas.com
new23.oktamam.com
www.new23.oktamam.com
nieuskalduna.metroo.es
www.rexandroxysbuckhead.com
LIQUIDWEB
hv.favook.com
j3e.us
rrcs-97-76-89-38.se.biz.rr.com
www.j3e.us
essencespaboutique.com.br
AKAMAI-LINODE-AP
private.cmkularski.net
TWC-11426-CAROLINAS
shemaleoncam.pro
www.shemaleoncam.pro
canottieriolona.com
LOGICWEB
mail.canottieriolona.com
LOGICWEB
www.canottieriolona.com
LOGICWEB
nginx.pr-25210.sprinklerguys.lagoon-prd.acromedia.com
AMAZON-02
ec2-99-79-48-9.ca-central-1.compute.amazonaws.com
AMAZON-02
su7.jp
blog.playup.fr
AMAZON-02
blog.weezchat.fr
AMAZON-02
blog.weezchat.fr
AMAZON-02
blog.playup.fr
AMAZON-02
blog.weezchat.fr
AMAZON-02
blog.playup.fr
AMAZON-02
su7.jp
su7.jp
blog.weezchat.fr
AMAZON-02
blog.playup.fr
AMAZON-02
su7.jp
www.creditsesame.com
AMAZON-02
www.creditsesame.com
AMAZON-02
wg2.fusionconfusion.net
ATT-INTERNET4
wg2hoa.fusionconfusion.net
ATT-INTERNET4
ec2-100-24-216-159.compute-1.amazonaws.com
AMAZON-AES
joytest.wp.prod.es.cloud.vt.edu
AMAZON-AES
andreweilconsultant.com
dar-alnajat.com
www.alghorees-est.com
jedgold.com
poornatrust.com
tessellatecreatives.com
vmestepodparusom.com
www.elyriawrestling.com
www.ibizfolks.com
www.vmestepodparusom.com
bandbbulletin.com
housemortgage.us
www.housemortgage.us
jp.shengwen.site
TENCENT-NET-AP-CN
www.jianx.cc
TENCENT-NET-AP-CN
turn.h5peixun.com
TENCENT-NET-AP
ablestaffingsolutions.ca
E2E-NETWORKS-IN
mail.ablestaffingsolutions.ca
www.ablestaffingsolutions.ca
asminfotech.co.in
E2E-NETWORKS-IN
cpcalendars.asminfotech.co.in
E2E-NETWORKS-IN
cpcontacts.asminfotech.co.in
E2E-NETWORKS-IN
rwlhealthworld.com
E2E-NETWORKS-IN
www.asminfotech.co.in
E2E-NETWORKS-IN
www.rwlhealthworld.com
E2E-NETWORKS-IN
mail.licencingsa.com.au
INTERVOLVE-MELBOURNE-AS-AP
www.kmr.mg
jamite.cloudlilufil.cloudns.nz
ZAP-Angola
tablewith.acc-moji.com
XSERVER
tokitaseitaiin.com
XSERVER
www.tokitaseitaiin.com
XSERVER
icbeppu.mcd-test.site
XSERVER
ec2-103-4-9-244.ap-northeast-1.compute.amazonaws.com
AMAZON-02
teknikpertanian.stiperkutim.ac.id
IDNIC-SDK-AS-ID
www.teknikpertanian.stiperkutim.ac.id
IDNIC-SDK-AS-ID
neomistudio.theknotstory.my
SKSATECH1-MY
www.neomistudio.theknotstory.my
SKSATECH1-MY
credit.mscms.com.my
SKSATECH1-MY
sabunbidara.jemarisakti.com
SKSATECH1-MY
www.credit.mscms.com.my
SKSATECH1-MY
www.sabunbidara.jemarisakti.com
SKSATECH1-MY
wp133.yoyogi.ne.jp
KRONOS
wp134.yoyogi.ne.jp
KRONOS
wp135.yoyogi.ne.jp
KRONOS
wp136.yoyogi.ne.jp
KRONOS
wp138.yoyogi.ne.jp
KRONOS
wp139.yoyogi.ne.jp
KRONOS
wp140.yoyogi.ne.jp
KRONOS
wp142.yoyogi.ne.jp
KRONOS
upm.pkr.ac.id
IDNIC-MAYATAMA-AS-ID
www.upm.pkr.ac.id
IDNIC-MAYATAMA-AS-ID
test.leapcodes.in
E2E-NETWORKS-IN
www.suryarasayan.mapsoftsol.com
PUBLIC-DOMAIN-REGISTRY
mail.jeremyroach.au
SYNERGYWHOLESALE-AP
thanhanmedical.com.vn
NHANHOA-AS-VN
www.thanhanmedical.com.vn
NHANHOA-AS-VN
mail.lona.com.vn
NHANHOA-AS-VN
phpmyadmin.lpc.vn
NHANHOA-AS-VN
pop.boilerservice.com.vn
NHANHOA-AS-VN
gummi.vn
FPT-AS-AP
panafricanreview.com
EMAXGLOBAL-AS
1kreatifindonesia.com
IDNIC-IDCLOUDHOST-AS-ID
mail.1kreatifindonesia.com
IDNIC-IDCLOUDHOST-AS-ID
mail.totalsinergi.id
IDNIC-IDCLOUDHOST-AS-ID
totalsinergi.id
IDNIC-IDCLOUDHOST-AS-ID
www.1kreatifindonesia.com
IDNIC-IDCLOUDHOST-AS-ID
www.totalsinergi.id
IDNIC-IDCLOUDHOST-AS-ID
www.sieuthicuabe.com.vn
VNPT-AS-VN
baidi020.com
CLOUDIE-AS-AP
www.baidi020.com
CLOUDIE-AS-AP
mail.zwalaki.com
EVOKEDS-AS
zwalaki.com
EVOKEDS-AS
congtyvesinhkontum.iduggiiv.nethost-5811.000web.xyz
VNPT-AS-VN
phariton.5stars-solutions.com
SUPERDATA-AS-VN
lifevator.com
HOST4GEEKS-LLC
www.rbia.test.jurysoftprojects.com
MWNASHIK-AS
www.yuanzhensb.com
AISI-AS-AP
yuanzhensb.com
AISI-AS-AP
taxisaigon.gq
VCL-AS-AP
www.osha.com.vn
WEBPANDA-AS-VN
nhamatbaclieu.com
WEBPANDA-AS-VN
www.nhamatbaclieu.com
WEBPANDA-AS-VN
noithat8.phongson.xyz
TLSOFT-AS-VN
www.noithat8.phongson.xyz
TLSOFT-AS-VN
tivi.ducson.org
LUUTRUSO-AS-VN
www.nyam.cn
MULTA-ASN1
fikara.my.id
QWORDS-AS-ID
putinhotel.thietkewebre.vn
CMCTELECOM-AS-VN
dpmk.papuabaratprov.go.id
IDNIC-PEMPROVPAPUABARAT-AS-ID
www.dpmk.papuabaratprov.go.id
IDNIC-PEMPROVPAPUABARAT-AS-ID
api-v1.thegioinhapho.com.vn
duchungjsc.com
NHANHOA-AS-VN
nhacchuong.thienbinh.net
NHANHOA-AS-VN
leman666.vn
BKHOST-AS-VN
hbiz.vn
WEBICO-AS-VN
afterlogic.tino.org
WEBICO-AS-VN
mail.afterlogic.tino.org
WEBICO-AS-VN
fokus.unram.ac.id
IDNIC-UNRAM-AS-ID
www.pomsgreece.viewmysitenow.com
GLOBAL-AS
inticore.co.id
www.inticore.co.id
every-about.work
XSERVER
www.every-about.work
XSERVER
xs816384.xsrv.jp
XSERVER
dapilpapua.com
IDNIC-BIZNETGIO-AS-ID
24h.my.id
IDNIC-BIZNETGIO-AS-ID
dinsos.tanjungbalaikota.go.id
IDNIC-DISKOMINFOKOTATANJUNGBALAI-AS-ID
3mg.in
YOTTA
1t.hk
NANBIAN-VPSORGLOBAL-AS
mj.1t.hk
NANBIAN-VPSORGLOBAL-AS
seostrikers.com
QTIME-AS-AP
www.seostrikers.com
QTIME-AS-AP
demo7s4.khoweb.top
BKNS-AS-VN
www.muhamadmuchtar.com
www.dkpp.padangsidimpuankota.go.id
IDNIC-DGSNET-AS-ID
drkrishnabaldawa.com
QTIME-AS-AP
www.drkrishnabaldawa.com
QTIME-AS-AP
www.lal.vn
VTDC-AS-VN
www.dev.tailgaterstx.com
QTIME-AS-AP
rumahjurnal.umbandung.ac.id
demo.theinspiration.in
HOME-AS-IN
aniruddhabuilders.com
QTIME-AS-AP
www.rgmd.legalgen.com
OMSAITECH-AS-IN
blog.pawnacamp.in
www.pandukamatatemple.com
www.rajkotrunners.com
dienmay2.mauwebsite.shop
DULIEUAZ-AS-VN
www.dienmay2.mauwebsite.shop
DULIEUAZ-AS-VN
www.quocthieu.name.vn
HOSTSLIM-GLOBAL-NETWORK
ayubiweb.org.ayubihost.my.id
IDNIC-IKUBARU-AS-ID
bachtiarboilerservice.com
IDNIC-IKUBARU-AS-ID
klinikarsitektur.my.id.noehaalmond.my.id
IDNIC-IKUBARU-AS-ID
mail.noehaalmond.my.id
IDNIC-IKUBARU-AS-ID
mazdapuri.net
IDNIC-IKUBARU-AS-ID
payago.envikastudio.my.id
IDNIC-IKUBARU-AS-ID
tulipspajakarta.com
IDNIC-IKUBARU-AS-ID
whatshop.cloud
IDNIC-IKUBARU-AS-ID
winser.my.id
IDNIC-IKUBARU-AS-ID
www.akangvilla.com
IDNIC-IKUBARU-AS-ID
www.wp.komikkira.com
IDNIC-IKUBARU-AS-ID
366e529c36.nxcli.net
INT-5GN-AS-AP
7970d8e963.nxcli.net
INT-5GN-AS-AP
growondigitalindia.in
NEXTRA-IN
agecarestudy.com.my
EXABYTES-AS-AP
indiavisionmedia.com
PHOENIXNAP-AS-SG1
staging.blog.onelife.vn
VINAGAME-AS-VN
mail.ptpn8.co.id
CRI-AS-AP
mail.bangarenterprises.in
WEBWERKS-AS-IN
test-lehre.roche.com
CLOUDFLARENET
sandbox.dev.lendingtree.com
CLOUDFLARENET
sandbox.dev.lendingtree.com
CLOUDFLARENET
masielle.com
CLOUDFLARENET
www.masielle.com
CLOUDFLARENET
test-rotkreuz.lehre.roche.com
CLOUDFLARENET
test-rotkreuz.lehre.roche.com
CLOUDFLARENET
rebuild17.obraspublicas.azores.gov.pt
CLOUDFLARENET
cms.dev-knd-v4.eaze.dev
CLOUDFLARENET
cms.dev-knd-v5.eaze.dev
CLOUDFLARENET
cms.opstech1.eaze.dev
CLOUDFLARENET
www.polyclinicplasticsurgery.com
CLOUDFLARENET
www.polyclinicplasticsurgery.com
CLOUDFLARENET
sandbox.dev.lendingtree.com
CLOUDFLARENET
sandbox.dev.lendingtree.com
CLOUDFLARENET
coin365bet.co
CLOUDFLARENET
app.teknogpt.com
CLOUDFLARENET
www.zippytots.co.uk
CLOUDFLARENET
www.sixpackshop.net
CLOUDFLARENET
www.ericirving.shop
CLOUDFLARENET
mail.jhakhasblog.com
CLOUDFLARENET
seobidder.com
CLOUDFLARENET
www.mapi.mg
CLOUDFLARENET
yourtechfinder.com
CLOUDFLARENET
www.sbbme.org.br
CLOUDFLARENET
hunterdontreeservice.com
CLOUDFLARENET
www.hunterdontreeservice.com
CLOUDFLARENET
strikingessays.com
CLOUDFLARENET
www.strikingessays.com
CLOUDFLARENET
vertsign.com.br
CLOUDFLARENET
ognewsindia.com
CLOUDFLARENET
www.soyrentable.com
CLOUDFLARENET
rubymac.shop
CLOUDFLARENET
www.rubymac.shop
CLOUDFLARENET
marketplace.wewebians.com
CLOUDFLARENET
mail.selfdefense.com.mx
CLOUDFLARENET
selfdefense.com.mx
CLOUDFLARENET
spiritwear.wizworxx.com
CLOUDFLARENET
www.spiritwear.wizworxx.com
CLOUDFLARENET
theresumey.com
CLOUDFLARENET
yaadhumoorae.in
CLOUDFLARENET
sunticusa.com
CLOUDFLARENET
justminlysz.shop
CLOUDFLARENET
dsracingdeals.com
CLOUDFLARENET
www.dsracingdeals.com
CLOUDFLARENET
test.cndr.me
CLOUDFLARENET
teampartner.tn
CLOUDFLARENET
www.teampartner.tn
CLOUDFLARENET
www.zonemeet.net
CLOUDFLARENET
zonemeet.net
CLOUDFLARENET
recettes-gateau.com
CLOUDFLARENET
www.www-onlinemerter.com
CLOUDFLARENET
aikresource.it
CLOUDFLARENET
drrocha.email
CLOUDFLARENET
luxurcywears.shop
CLOUDFLARENET
roominghousepro.com.au
CLOUDFLARENET
dtesb.com
CLOUDFLARENET
www.dtesb.com
CLOUDFLARENET
www.zebanshow.com
CLOUDFLARENET
leahdelrosario.com
CLOUDFLARENET
www.leahdelrosario.com
CLOUDFLARENET
mail.ibbotsondesigns.com.au
CLOUDFLARENET
www.bunsr03.shop
CLOUDFLARENET
ninaterol.com
CLOUDFLARENET
www.ninaterol.com
CLOUDFLARENET
thefashionwonderland.com
CLOUDFLARENET
www.meetndate.nl
CLOUDFLARENET
excellencere.cl
CLOUDFLARENET
mail.excellencere.cl
CLOUDFLARENET
www.excellencere.cl
CLOUDFLARENET
pricelesspayroll.se
CLOUDFLARENET
rhwupload.site
CLOUDFLARENET
airmax720.us.com
CLOUDFLARENET
mail.recantodomel.com.br
CLOUDFLARENET
tabouk.code95.info
CLOUDFLARENET
dickmicah.shop
CLOUDFLARENET
www.dickmicah.shop
CLOUDFLARENET
www.videoapm.com
CLOUDFLARENET
www.coachfactoryoutlet-storeonline.us.com
CLOUDFLARENET
chrtogmbooks.com
CLOUDFLARENET
www.pandorajewelryoutlet.us.com
CLOUDFLARENET
basketboliddaa.net
CLOUDFLARENET
hackdeals.co.uk
CLOUDFLARENET
robcmorris.com
CLOUDFLARENET
www.aviaodamix.com.br
CLOUDFLARENET
wpthree.adiszena.net
CLOUDFLARENET
letsgetnaked.us
CLOUDFLARENET
www.zonaann.shop
CLOUDFLARENET
zonaann.shop
CLOUDFLARENET
arieswilde.shop
CLOUDFLARENET
www.arieswilde.shop
CLOUDFLARENET
momaroundandfindout.com
CLOUDFLARENET
digitalmarketingliverpool.com
CLOUDFLARENET
wickfxdfssz.shop
CLOUDFLARENET
hindibolo.in
CLOUDFLARENET
glowauckley.co.uk
CLOUDFLARENET
fendtoldtimer.com
CLOUDFLARENET
silvepulsa.shop
CLOUDFLARENET
sama.samabirthingandbeyond.com
CLOUDFLARENET
innesjacome.com
CLOUDFLARENET
www.innesjacome.com
CLOUDFLARENET
chichiauto.com
CLOUDFLARENET
www.chichiauto.com
CLOUDFLARENET
oil.ndoni.al
CLOUDFLARENET
mdas044.app.ecoris.fr
CLOUDFLARENET
www.impreseinmischia.it
CLOUDFLARENET
furxba.shop
CLOUDFLARENET
www.furxba.shop
CLOUDFLARENET
livebonuscasinos.com
CLOUDFLARENET
ionianinternational.com
CLOUDFLARENET
interwebs.click
CLOUDFLARENET
angelholiday.in
CLOUDFLARENET
ichor.com.ng
CLOUDFLARENET
mail.soge.space
CLOUDFLARENET
soge.space
CLOUDFLARENET
www.soge.space
CLOUDFLARENET
www.tstrillion.com.hk
CLOUDFLARENET
tusvivencias.com
CLOUDFLARENET
nonfungibleguild.com
CLOUDFLARENET
www.haydenlee.net
CLOUDFLARENET
mail.uni-bme.ir
CLOUDFLARENET
kares.mk
CLOUDFLARENET
jeenaclinic.com.au
CLOUDFLARENET
pusat-aldo.hosterr.my.id
CLOUDFLARENET
wpsitetight.leverage-marketing.net
CLOUDFLARENET
punctureprooftyre.com
CLOUDFLARENET
bayreaders.co.nz
CLOUDFLARENET
www.emyshub.com
CLOUDFLARENET
william-murray.com
CLOUDFLARENET
luxus-fahrrad.de
CLOUDFLARENET
www.drokic.com
CLOUDFLARENET
www.troybeck.shop
CLOUDFLARENET
mail.vostanimes.com
CLOUDFLARENET
www.fashion-room.shop
CLOUDFLARENET
komando.co.id
CLOUDFLARENET
www.changethebackground.com
CLOUDFLARENET
www.tonyalice.shop
CLOUDFLARENET
jaiswatantrabharat.com
CLOUDFLARENET
mail.jaiswatantrabharat.com
CLOUDFLARENET
mail.mobilityspecialists.com.au
CLOUDFLARENET
mobilityspecialists.com.au
CLOUDFLARENET
www.mobilityspecialists.com.au
CLOUDFLARENET
long-jump-pit.co.uk
CLOUDFLARENET
sportnahrungs.shop
CLOUDFLARENET
moodscocktails.com
CLOUDFLARENET
www.tabuteansysz.shop
CLOUDFLARENET
insantekno.com
CLOUDFLARENET
becap.mx
CLOUDFLARENET
aitamenni-berriak.org
CLOUDFLARENET
abc.outdoorsgearshop.com
CLOUDFLARENET
cart.marlegran.com.br
CLOUDFLARENET
1findlife.com
CLOUDFLARENET
www.1findlife.com
CLOUDFLARENET
mail.shopmixu.com
CLOUDFLARENET
www.shopmixu.com
CLOUDFLARENET
enfejargame.com
CLOUDFLARENET
mail.enfejargame.com
CLOUDFLARENET
jscmic.in
CLOUDFLARENET
ipv6.whitehouseconstructions.com.au
CLOUDFLARENET
mail.whitehouseconstructions.com.au
CLOUDFLARENET
whitehouseconstructions.com.au
CLOUDFLARENET
www.whitehouseconstructions.com.au
CLOUDFLARENET
pestcontrolhobarttas.com
CLOUDFLARENET
vovohelenadoces.site
CLOUDFLARENET
ww2.documantal.com
CLOUDFLARENET
kartalanahtarci.com
CLOUDFLARENET
caq.one
CLOUDFLARENET
thecityheights.com
CLOUDFLARENET
thedresslist.com
CLOUDFLARENET
www.thedresslist.com
CLOUDFLARENET
development.marjancaspers.nl
CLOUDFLARENET
yourshaadi.love
CLOUDFLARENET
gipsaventure.fr
CLOUDFLARENET
cryptoinvestio.com
CLOUDFLARENET
www.test.agence-arica.fr
CLOUDFLARENET
www.putitinbins.com.au
CLOUDFLARENET
www.dangthuyli.com
CLOUDFLARENET
dalphahealth.com
CLOUDFLARENET
ideascor.my.id
CLOUDFLARENET
giran.ir
CLOUDFLARENET
adsvenus303.online
CLOUDFLARENET
staging.com.agrodev.net
CLOUDFLARENET
www.bartamanalo.com
CLOUDFLARENET
news.nakblogz.top
CLOUDFLARENET
ragnarokraiz.com
CLOUDFLARENET
blog.sophiacurtains.com
CLOUDFLARENET
mayneplastics.co.uk
CLOUDFLARENET
escortvakfi.com
CLOUDFLARENET
ivfbestcentre.com
CLOUDFLARENET
lifestyleupgrades.shop
CLOUDFLARENET
www.rexpansy.shop
CLOUDFLARENET
334647forumromanum.de
CLOUDFLARENET
www.kursungemisi.com
CLOUDFLARENET
sidkitty.shop
CLOUDFLARENET
www.sidkitty.shop
CLOUDFLARENET
ur-snacks.com
CLOUDFLARENET
adlpackers.in
CLOUDFLARENET
www.adlpackers.in
CLOUDFLARENET
storyobject007.com
CLOUDFLARENET
www.sparkvisaconsulting.com
CLOUDFLARENET
uisp.pl
CLOUDFLARENET
cvb.veerit.com
CLOUDFLARENET
allslot888.live
CLOUDFLARENET
api.arifzyn.xyz
CLOUDFLARENET
mail.rachitafurniture.com
CLOUDFLARENET
www.primejobs.com.br
CLOUDFLARENET
www.parktowers1620.com
CLOUDFLARENET
www.bleame-outlet.com
CLOUDFLARENET
chinapress-daily.com
CLOUDFLARENET
sis.science
CLOUDFLARENET
ufacr7.club
CLOUDFLARENET
firstclasssoft.com
CLOUDFLARENET
agrowissenforen.de
CLOUDFLARENET
lucabet888.live
CLOUDFLARENET
top5domains.com
CLOUDFLARENET
www.shonasstyle.com
CLOUDFLARENET
columbusheatingandairconditioningllc.com
CLOUDFLARENET
www.officinanaturalis.com
CLOUDFLARENET
data.naturfyt.bio
CLOUDFLARENET
hemporganic.net
CLOUDFLARENET
shahindadashpour.ir
CLOUDFLARENET
kanha.com.np
CLOUDFLARENET
ancetiket.net
CLOUDFLARENET
blackfootdiner.ca
CLOUDFLARENET
saxongeorge.shop
CLOUDFLARENET
www.saxongeorge.shop
CLOUDFLARENET
atozbizz.com
CLOUDFLARENET
mail.atozbizz.com
CLOUDFLARENET
bitacine.com
CLOUDFLARENET
tormentodivino.com
CLOUDFLARENET
www.tormentodivino.com
CLOUDFLARENET
dudamagalhaes.com
CLOUDFLARENET
indiabuys.in
CLOUDFLARENET
www.bemainternet.com
CLOUDFLARENET
anastudio.io
CLOUDFLARENET
willmotley.shop
CLOUDFLARENET
uksnowboard.co.uk
CLOUDFLARENET
www.uksnowboard.co.uk
CLOUDFLARENET
www.publishcreator.com
CLOUDFLARENET
www.feelhappiness.com
CLOUDFLARENET
natalieisabel.shop
CLOUDFLARENET
www.natalieisabel.shop
CLOUDFLARENET
eraykaya.com.tr
CLOUDFLARENET
joker777auto.co
CLOUDFLARENET
viasildpllx.com
CLOUDFLARENET
www.zewincom.com
CLOUDFLARENET
reddotcuisine.com
CLOUDFLARENET
www.reddotcuisine.com
CLOUDFLARENET
mail.platinumx.mx
CLOUDFLARENET
pop.platinumx.mx
CLOUDFLARENET
smtp.platinumx.mx
CLOUDFLARENET
zoomasanta.com
CLOUDFLARENET
www.junksperation.shop
CLOUDFLARENET
blog.lelika.com
CLOUDFLARENET
www.ahk-law.co.il
CLOUDFLARENET
mardinescortvit.com
CLOUDFLARENET
www.zyfm.eu.org
CLOUDFLARENET
zyfm.eu.org
CLOUDFLARENET
tsitalia.webenjoy.net
CLOUDFLARENET
www.pxdio.com
CLOUDFLARENET
www.maooooozaizi.com
CLOUDFLARENET
makanpizza.shop
CLOUDFLARENET
mail.51gamewhy.com
CLOUDFLARENET
www.51gamewhy.com
CLOUDFLARENET
printing.webilo.my.id
CLOUDFLARENET
cbeyond.supercorps.org
CLOUDFLARENET
centralsysparkways.supercorps.org
CLOUDFLARENET
etherealtechnology.supercorps.org
CLOUDFLARENET
hoverover.supercorps.org
CLOUDFLARENET
mybrightdiamondsystems.supercorps.org
CLOUDFLARENET
priceworthbusinessgroup.supercorps.org
CLOUDFLARENET
bluelankalive.visionarydv.com
CLOUDFLARENET
lancebart.shop
CLOUDFLARENET
www.lancebart.shop
CLOUDFLARENET
ezb68.me
CLOUDFLARENET
funderss.us
CLOUDFLARENET
mail.sdahospitalife.org
CLOUDFLARENET
relx679.co
CLOUDFLARENET
www.fnyllchemical.com
CLOUDFLARENET
mail.gmitalia.org
CLOUDFLARENET
mail.lincolncarrenho.com.br
CLOUDFLARENET
www.lisansbizde.com
CLOUDFLARENET
olegdanshin.com
CLOUDFLARENET
ninjadeals.io
CLOUDFLARENET
www.ninjadeals.io
CLOUDFLARENET
www.namanbharat.co
CLOUDFLARENET
anssas.com
CLOUDFLARENET
www.anssas.com
CLOUDFLARENET
luxehouze.shop
CLOUDFLARENET
www.luxehouze.shop
CLOUDFLARENET
flashhostinger.shop
CLOUDFLARENET
jumpstartmydream.com
CLOUDFLARENET
www.jumpstartmydream.com
CLOUDFLARENET
oliverbourke.com
CLOUDFLARENET
www.oliverbourke.com
CLOUDFLARENET
www.findingmyeuphoria.com
CLOUDFLARENET
fairfaxvatreeremoval.com
CLOUDFLARENET
www.fairfaxvatreeremoval.com
CLOUDFLARENET
agingthai.org
CLOUDFLARENET
newearthsoftware.com
CLOUDFLARENET
pastisehat.online
CLOUDFLARENET
sub.mdtbaitulhikmah.sch.id
CLOUDFLARENET
cap3.net
CLOUDFLARENET
cgiscientific.com
CLOUDFLARENET
www.cgiscientific.com
CLOUDFLARENET
grindpoints.com
CLOUDFLARENET
mail.rachitainfotech.in
CLOUDFLARENET
7-hammers.com
CLOUDFLARENET
mail.hellobharat24.com
CLOUDFLARENET
jackstree.co.kr.sieumeo.com
CLOUDFLARENET
www.jackstree.co.kr.sieumeo.com
CLOUDFLARENET
ivermectin7tab.com
CLOUDFLARENET
www.speakingofcents.com
CLOUDFLARENET
www.indianmartyrs.in
CLOUDFLARENET
zandia.cl
CLOUDFLARENET
www.jumpjumpcandy.one
CLOUDFLARENET
guru.innov8t.ie
CLOUDFLARENET
wp-sf.hanz.lol
CLOUDFLARENET
www.zg-ai.com
CLOUDFLARENET
www.webodigital.com.au
CLOUDFLARENET
www.goodgocostore.com
CLOUDFLARENET
donnadivertente.tk
CLOUDFLARENET
ktv789.live
CLOUDFLARENET
uecplp.org
CLOUDFLARENET
spartanlrysz.shop
CLOUDFLARENET
www.spartanlrysz.shop
CLOUDFLARENET
aipepe.site
CLOUDFLARENET
hydroxychloroquinepills.com
CLOUDFLARENET
512233.xyz
CLOUDFLARENET
www.spiralsoulseed.com
CLOUDFLARENET
www.drsudhir.in
CLOUDFLARENET
www.spanx-us.shop
CLOUDFLARENET
nigerianchat.com
CLOUDFLARENET
palmbeachcustoms.com
CLOUDFLARENET
ic4l.co
CLOUDFLARENET
skarfpulsa.shop
CLOUDFLARENET
ottokit.shop
CLOUDFLARENET
alisadeghi.org
CLOUDFLARENET
www.alisadeghi.org
CLOUDFLARENET
salud-positiva.com
CLOUDFLARENET
www.salud-positiva.com
CLOUDFLARENET
www.sritongnp.com
CLOUDFLARENET
www.nhanxuong.xedienthanhlam.com
CLOUDFLARENET
ringopulsa.shop
CLOUDFLARENET
airegases.com.co
CLOUDFLARENET
www.airegases.com.co
CLOUDFLARENET
woo.somamedicalparts.com
CLOUDFLARENET
xytestweb154.eu.org
CLOUDFLARENET
pusathemat.site
CLOUDFLARENET
www.theglassesshop.co.uk
CLOUDFLARENET
dignitaryprotection.us
CLOUDFLARENET
www.dignitaryprotection.us
CLOUDFLARENET
hangulatmasszazs.hu
CLOUDFLARENET
wcs-technologies.com
CLOUDFLARENET
rapidtech.co.nz
CLOUDFLARENET
iphonerepair.expert
CLOUDFLARENET
brazilherb.win
CLOUDFLARENET
doctory.viralcy.com
CLOUDFLARENET
www.techever.in
CLOUDFLARENET
oldbackup.wahooti.co.uk
CLOUDFLARENET
www.oldbackup.wahooti.co.uk
CLOUDFLARENET
eddyhakim.com
CLOUDFLARENET
www.eddyhakim.com
CLOUDFLARENET
staging.sportslumo.com
CLOUDFLARENET
staging.vinplastic.com.br
CLOUDFLARENET
www.ipllivescore.info
CLOUDFLARENET
thespiritualelevation.com
CLOUDFLARENET
www.thespiritualelevation.com
CLOUDFLARENET
stromecpitol.com
CLOUDFLARENET
qixifestival.love
CLOUDFLARENET
gsmglobalsports.org
CLOUDFLARENET
www.le-sommelier.net
CLOUDFLARENET
www.responsiblegambling.online
CLOUDFLARENET
mail.edu-course.in
CLOUDFLARENET
www.oakleysunglasses-outlet.name
CLOUDFLARENET
truckerage.com
CLOUDFLARENET
believein.love
CLOUDFLARENET
dqbq.biz.id
CLOUDFLARENET
staging.thegreatproteinchallenge.com.au
CLOUDFLARENET
topthairealestate.com
CLOUDFLARENET
legig.ro
CLOUDFLARENET
bahamarama.co.uk
CLOUDFLARENET
www.bahamarama.co.uk
CLOUDFLARENET
dev.senexhomes.com
CLOUDFLARENET
new.tanzashop.com
CLOUDFLARENET
demo.locatelocalpro.com
CLOUDFLARENET
demo.woxacorp.com
CLOUDFLARENET
www.novalandscapingdrainage.com
CLOUDFLARENET
smitheights.in
CLOUDFLARENET
test.chicagotechsolution.com
CLOUDFLARENET
viet69.one
CLOUDFLARENET
www.cardingunion.com
CLOUDFLARENET
wholecheesecakes.myyisu.com
CLOUDFLARENET
blog.gcitrading.com
CLOUDFLARENET
functionalmedicineadvisors.com
CLOUDFLARENET
www.functionalmedicineadvisors.com
CLOUDFLARENET
gilesjohn.shop
CLOUDFLARENET
www.gilesjohn.shop
CLOUDFLARENET
www.ashishgajbhiye.com
CLOUDFLARENET
socasinoromania.ro
CLOUDFLARENET
contentcareer.com
CLOUDFLARENET
www.freecrackkey.com
CLOUDFLARENET
blindbidauction.com
CLOUDFLARENET
undefeatssed.shop
CLOUDFLARENET
linq.me.in
CLOUDFLARENET
files.youngbangla.org
CLOUDFLARENET
syauqi.store
CLOUDFLARENET
www.cristoerp.com
CLOUDFLARENET
reciclaotemueres.frv.ninja
CLOUDFLARENET
www.dyyu.net
CLOUDFLARENET
fantamarket.com
CLOUDFLARENET
rajandkaren.love
CLOUDFLARENET
sora.videosb.online
CLOUDFLARENET
vouchedbooks.com
CLOUDFLARENET
www.steel-hirad.com
CLOUDFLARENET
onziestore.com
CLOUDFLARENET
tilecacuoc.live
CLOUDFLARENET
crystal-productions.co.uk
CLOUDFLARENET
www.crystal-productions.co.uk
CLOUDFLARENET
songbac.casino
CLOUDFLARENET
www.songbac.casino
CLOUDFLARENET
www.merlebell.shop
CLOUDFLARENET
yettahoyle.shop
CLOUDFLARENET
pro.melver.com.br
CLOUDFLARENET
ytupload.com
CLOUDFLARENET
coctelesfaciles.com
CLOUDFLARENET
super.hostodian.com
CLOUDFLARENET
autodiscover.rajinbelajar.net
CLOUDFLARENET
cpanel.rajinbelajar.net
CLOUDFLARENET
cpcalendars.rajinbelajar.net
CLOUDFLARENET
cpcontacts.rajinbelajar.net
CLOUDFLARENET
kuisplay.rajinbelajar.net
CLOUDFLARENET
webdisk.rajinbelajar.net
CLOUDFLARENET
